*HEADING
ECA4SFS3: PRESSURE AND HYDROSTATIC PRESSURE FOR AXISYM. SOLIDS  CAX4
*PREPRINT,ECHO=YES,HISTORY=NO,MODEL=NO
*NODE
 1, 1000.0, 0.0
 2, 1002.0, 0.0
 3, 1002.0, 1.0
 4, 1000.0, 1.0
*ELEMENT, TYPE=CAX4, ELSET=EALL
 1, 1, 2, 3, 4
*SOLID SECTION,MATERIAL=A1, ELSET=EALL
*MATERIAL,NAME=A1
*ELASTIC,TYPE=ISOTROPIC
 30.0E6,0.3
*BOUNDARY
 1, 2
 2, 2
*STEP
*STATIC
*DLOAD,OP=NEW
 1, P3, 1000.0
 1, P2, 1000.0
 1, P4, 1000.0
*EL FILE
 S,
 COORD,
 E,
 LOADS,
*ENERGY FILE
*NODE FILE
 U,COORD
*NODE PRINT
 U,COORD
*EL PRINT
 S,
 COORD,
 E,
 LOADS,
*END STEP
