*HEADING
MEMBRANE PATCH TEST  CPE4
*PREPRINT,ECHO=YES,HISTORY=NO,MODEL=NO
*NODE
1, 0.0, 0.0
2, 0.5, 0.0
3, 1.0, 0.0
4, 0.0, 0.5
5, 0.5, 0.5
6, 1.0, 0.5
7, 0.0, 1.0
8, 0.5, 1.0
9, 1.0, 1.0
*ELEMENT,TYPE=CPE4, ELSET=EALL
1, 1,2,5,4
2, 2,3,6,5
3, 4,5,8,7
4, 5,6,9,8
*SOLID SECTION, MATERIAL=A1, ELSET=EALL
.001,
*MATERIAL,NAME=A1
*ELASTIC,TYPE=ISOTROPIC
1.E6,.25
