*NODE
**1, 0.0, 0.0
**2, 0.5, 0.0
**3, 1.0, 0.0
4, 0.0, 0.5
5, 0.5, 0.5
**6, 1.0, 0.5
**7, 0.0, 1.0
8, 0.5, 1.0
**9, 1.0, 1.0
*ELEMENT,TYPE=CPE3, ELSET=EALL
**1, 1,2,5
**2, 2,3,6
**3, 6,5,2
**4, 5,4,1
5, 4,5,8
**6, 5,6,9
**7, 9,8,5
**8, 8,7,4
*SOLID SECTION, MATERIAL=A1, ELSET=EALL
.001,
*MATERIAL,NAME=A1
*ELASTIC,TYPE=ISOTROPIC
1.E6,.25
