*Node, nset=NAll
 1,  0.00000000,  0.00000000
 2,  0.50000000,  0.00000000
 3,  1.00000000,  0.00000000
 4,  1.50000000,  0.00000000
 5,  2.00000000,  0.00000000
 6,  2.50000000,  0.00000000
 7,  3.00000000,  0.00000000
 8,  3.50000000,  0.00000000
 9,  4.00000000,  0.00000000
 10,  4.50000000,  0.00000000
 11,  5.00000000,  0.00000000
 12,  5.50000000,  0.00000000
 13,  6.00000000,  0.00000000
 14,  6.50000000,  0.00000000
 15,  7.00000000,  0.00000000
 16,  7.50000000,  0.00000000
 17,  8.00000000,  0.00000000
 22,  0.00000000,  0.25000000
 23,  1.00000000,  0.25000000
 24,  2.00000000,  0.25000000
** ... 23 like lines cut
*Element, type=CPS4, elset=EAll
 1, 1, 3, 35, 33, 2, 23, 34, 22
 2, 3, 5, 37, 35, 4, 24, 36, 23
 3, 5, 7, 39, 37, 6, 25, 38, 24
 4, 7, 9, 41, 39, 8, 26, 40, 25
 5, 9, 11, 43, 41, 10, 27, 42, 26
 6, 11, 13, 45, 43, 12, 28, 44, 27
 7, 13, 15, 47, 45, 14, 29, 46, 28
 8, 15, 17, 49, 47, 16, 30, 48, 29
*Solid Section, elset=EAll, material=Material-1
*Material, name=Material-1
*Elastic
 100.0, .3
*Step, name=Step-1
*Static
*Boundary
 1, 2, 2, 0.000000
 1, 1, 1, 0.000000
 22, 1, 1, 0.000000
 22, 2, 2, 0.000000
 33, 2, 2, 0.000000
 33, 1, 1, 0.000000
*CLoad
 49, Y, 0.010000
*End Step
